<?xml version="1.0" encoding="UTF-8"?>

<!-- generated on 2024-08-08 19:30:16 by Eclipse SUMO netedit Version 1.19.0
<configuration xmlns:xsi="http://www.w3.org/2001/XMLSchema-instance" xsi:noNamespaceSchemaLocation="http://sumo.dlr.de/xsd/neteditConfiguration.xsd">

    <input>
        <sumo-net-file value="C:\self\School\Master\Disertation\CarNetworks\Blvd Unirii\osm.net.xml"/>
    </input>

    <output>
        <output-file value="C:\self\School\Master\Disertation\CarNetworks\Blvd Unirii\osm.net.xml"/>
        <output.street-names value="true"/>
    </output>

    <processing>
        <geometry.min-radius.fix.railways value="false"/>
        <geometry.max-grade.fix value="false"/>
        <offset.disable-normalization value="true"/>
        <lefthand value="0"/>
    </processing>

    <junctions>
        <no-turnarounds value="true"/>
        <junctions.corner-detail value="5"/>
        <junctions.limit-turn-speed value="5.50"/>
        <rectangular-lane-cut value="0"/>
    </junctions>

    <pedestrian>
        <walkingareas value="0"/>
    </pedestrian>

</configuration>
-->

<net version="1.16" junctionCornerDetail="5" limitTurnSpeed="5.50" xmlns:xsi="http://www.w3.org/2001/XMLSchema-instance" xsi:noNamespaceSchemaLocation="http://sumo.dlr.de/xsd/net_file.xsd">

    <location netOffset="-428679.61,-4919004.87" convBoundary="0.00,0.00,2047.45,998.50" origBoundary="26.103984,44.420919,26.129756,44.429966" projParameter="+proj=utm +zone=35 +ellps=WGS84 +datum=WGS84 +units=m +no_defs"/>

    <type id="highway.primary" priority="12" numLanes="2" speed="27.78" disallow="tram rail_urban rail rail_electric rail_fast ship" oneway="0"/>
    <type id="highway.residential" priority="3" numLanes="1" speed="13.89" disallow="tram rail_urban rail rail_electric rail_fast ship" oneway="0"/>
    <type id="highway.secondary" priority="11" numLanes="1" speed="27.78" disallow="tram rail_urban rail rail_electric rail_fast ship" oneway="0"/>
    <type id="highway.tertiary" priority="10" numLanes="1" speed="22.22" disallow="tram rail_urban rail rail_electric rail_fast ship" oneway="0"/>

    <edge id=":254398078_0" function="internal">
        <lane id=":254398078_0_0" index="0" disallow="tram rail_urban rail rail_electric rail_fast ship" speed="3.65" length="4.67" shape="1111.03,739.89 1110.55,741.25 1109.87,741.83 1109.00,741.64 1107.93,740.67"/>
    </edge>
    <edge id=":2977072990_0" function="internal">
        <lane id=":2977072990_0_0" index="0" disallow="tram rail_urban rail rail_electric rail_fast ship" speed="13.89" length="8.21" shape="1205.45,532.34 1205.87,534.71 1206.53,536.27 1207.19,537.83 1207.61,540.20"/>
        <lane id=":2977072990_0_1" index="1" disallow="tram rail_urban rail rail_electric rail_fast ship" speed="13.89" length="8.21" shape="1202.26,532.56 1202.67,534.93 1203.33,536.49 1204.00,538.06 1204.42,540.43"/>
        <lane id=":2977072990_0_2" index="2" disallow="tram rail_urban rail rail_electric rail_fast ship" speed="13.89" length="8.21" shape="1202.26,532.56 1202.17,534.97 1201.74,536.61 1201.30,538.25 1201.23,540.66"/>
    </edge>
    <edge id=":2997625767_0" function="internal">
        <lane id=":2997625767_0_0" index="0" disallow="tram rail_urban rail rail_electric rail_fast ship" speed="3.65" length="4.67" shape="615.61,383.43 616.32,382.17 617.09,381.71 617.92,382.05 618.81,383.19"/>
    </edge>
    <edge id=":4152138063_0" function="internal">
        <lane id=":4152138063_0_0" index="0" disallow="tram rail_urban rail rail_electric rail_fast ship" speed="3.65" length="4.67" shape="647.45,761.88 646.76,763.15 646.00,763.61 645.17,763.29 644.27,762.16"/>
    </edge>
    <edge id=":4257923291_0" function="internal">
        <lane id=":4257923291_0_0" index="0" disallow="pedestrian tram rail_urban rail rail_electric rail_fast ship" speed="15.28" length="8.21" shape="679.80,616.29 677.43,616.72 675.87,617.39 674.31,618.06 671.94,618.49"/>
        <lane id=":4257923291_0_1" index="1" disallow="pedestrian tram rail_urban rail rail_electric rail_fast ship" speed="15.28" length="8.21" shape="679.56,613.10 677.19,613.53 675.63,614.20 674.07,614.87 671.70,615.30"/>
        <lane id=":4257923291_0_2" index="2" disallow="pedestrian tram rail_urban rail rail_electric rail_fast ship" speed="15.28" length="8.21" shape="679.32,609.91 676.95,610.34 675.39,611.01 673.83,611.68 671.46,612.11"/>
        <lane id=":4257923291_0_3" index="3" disallow="pedestrian tram rail_urban rail rail_electric rail_fast ship" speed="15.28" length="8.21" shape="679.32,609.91 676.91,609.84 675.27,609.41 673.63,608.98 671.22,608.92"/>
    </edge>
    <edge id=":574834_0" function="internal">
        <lane id=":574834_0_0" index="0" disallow="tram rail_urban rail rail_electric rail_fast ship" speed="3.65" length="4.67" shape="1512.78,448.72 1513.67,447.58 1514.50,447.24 1515.27,447.70 1515.98,448.96"/>
    </edge>
    <edge id=":6291820406_0" function="internal">
        <lane id=":6291820406_0_0" index="0" disallow="pedestrian tram rail_urban rail rail_electric rail_fast ship" speed="15.28" length="8.21" shape="1567.37,550.15 1564.99,550.57 1563.43,551.23 1561.87,551.89 1559.50,552.31"/>
        <lane id=":6291820406_0_1" index="1" disallow="pedestrian tram rail_urban rail rail_electric rail_fast ship" speed="15.28" length="8.21" shape="1567.14,546.96 1564.77,547.38 1563.21,548.04 1561.65,548.70 1559.27,549.12"/>
        <lane id=":6291820406_0_2" index="2" disallow="pedestrian tram rail_urban rail rail_electric rail_fast ship" speed="15.28" length="8.21" shape="1566.91,543.76 1564.54,544.18 1562.98,544.85 1561.42,545.51 1559.05,545.93"/>
        <lane id=":6291820406_0_3" index="3" disallow="pedestrian tram rail_urban rail rail_electric rail_fast ship" speed="15.28" length="8.21" shape="1566.91,543.76 1564.50,543.68 1562.87,543.25 1561.23,542.82 1558.82,542.74"/>
    </edge>
    <edge id=":979520403_0" function="internal">
        <lane id=":979520403_0_0" index="0" disallow="tram rail_urban rail rail_electric rail_fast ship" speed="3.65" length="4.67" shape="1531.81,659.02 1531.09,660.27 1530.32,660.73 1529.50,660.38 1528.61,659.24"/>
    </edge>
    <edge id=":cluster_14485274_151021003_2335517648_254337785_#1more_0" function="internal">
        <lane id=":cluster_14485274_151021003_2335517648_254337785_#1more_0_0" index="0" disallow="tram rail_urban rail rail_electric rail_fast ship" speed="6.51" length="9.04" shape="1192.20,583.46 1191.67,581.04 1190.48,579.37 1188.66,578.45 1186.19,578.29"/>
    </edge>
    <edge id=":cluster_14485274_151021003_2335517648_254337785_#1more_1" function="internal">
        <lane id=":cluster_14485274_151021003_2335517648_254337785_#1more_1_0" index="0" disallow="tram rail_urban rail rail_electric rail_fast ship" speed="13.89" length="36.29" shape="1192.20,583.46 1189.58,547.26"/>
        <lane id=":cluster_14485274_151021003_2335517648_254337785_#1more_1_1" index="1" disallow="tram rail_urban rail rail_electric rail_fast ship" speed="13.89" length="36.29" shape="1195.39,583.23 1192.77,547.04"/>
    </edge>
    <edge id=":cluster_14485274_151021003_2335517648_254337785_#1more_3" function="internal">
        <lane id=":cluster_14485274_151021003_2335517648_254337785_#1more_3_0" index="0" disallow="tram rail_urban rail rail_electric rail_fast ship" speed="12.11" length="20.54" shape="1195.39,583.23 1196.87,575.56 1201.42,567.28 1203.66,564.89"/>
    </edge>
    <edge id=":cluster_14485274_151021003_2335517648_254337785_#1more_4" function="internal">
        <lane id=":cluster_14485274_151021003_2335517648_254337785_#1more_4_0" index="0" disallow="tram rail_urban rail rail_electric rail_fast ship" speed="5.76" length="11.72" shape="1195.39,583.23 1197.68,579.19 1200.16,577.72 1202.82,578.82 1203.63,579.85"/>
    </edge>
    <edge id=":cluster_14485274_151021003_2335517648_254337785_#1more_22" function="internal">
        <lane id=":cluster_14485274_151021003_2335517648_254337785_#1more_22_0" index="0" disallow="tram rail_urban rail rail_electric rail_fast ship" speed="12.11" length="13.37" shape="1203.66,564.89 1207.73,560.54 1214.49,557.50"/>
    </edge>
    <edge id=":cluster_14485274_151021003_2335517648_254337785_#1more_23" function="internal">
        <lane id=":cluster_14485274_151021003_2335517648_254337785_#1more_23_0" index="0" disallow="tram rail_urban rail rail_electric rail_fast ship" speed="5.76" length="3.33" shape="1203.63,579.85 1205.67,582.48"/>
    </edge>
    <edge id=":cluster_14485274_151021003_2335517648_254337785_#1more_5" function="internal">
        <lane id=":cluster_14485274_151021003_2335517648_254337785_#1more_5_0" index="0" disallow="pedestrian tram rail_urban rail rail_electric rail_fast ship" speed="7.01" length="10.67" shape="1215.95,576.07 1212.68,576.67 1210.41,577.90 1209.14,579.76 1208.86,582.25"/>
    </edge>
    <edge id=":cluster_14485274_151021003_2335517648_254337785_#1more_6" function="internal">
        <lane id=":cluster_14485274_151021003_2335517648_254337785_#1more_6_0" index="0" disallow="pedestrian tram rail_urban rail rail_electric rail_fast ship" speed="16.67" length="29.84" shape="1215.95,576.07 1186.19,578.29"/>
        <lane id=":cluster_14485274_151021003_2335517648_254337785_#1more_6_1" index="1" disallow="pedestrian tram rail_urban rail rail_electric rail_fast ship" speed="16.67" length="29.84" shape="1215.70,572.88 1185.95,575.10"/>
        <lane id=":cluster_14485274_151021003_2335517648_254337785_#1more_6_2" index="2" disallow="pedestrian tram rail_urban rail rail_electric rail_fast ship" speed="16.67" length="29.84" shape="1215.45,569.69 1185.71,571.91"/>
    </edge>
    <edge id=":cluster_14485274_151021003_2335517648_254337785_#1more_9" function="internal">
        <lane id=":cluster_14485274_151021003_2335517648_254337785_#1more_9_0" index="0" disallow="pedestrian tram rail_urban rail rail_electric rail_fast ship" speed="12.12" length="18.69" shape="1215.45,569.69 1208.35,567.67 1201.12,561.93 1199.86,560.28"/>
    </edge>
    <edge id=":cluster_14485274_151021003_2335517648_254337785_#1more_10" function="internal">
        <lane id=":cluster_14485274_151021003_2335517648_254337785_#1more_10_0" index="0" disallow="pedestrian tram rail_urban rail rail_electric rail_fast ship" speed="6.21" length="14.47" shape="1215.45,569.69 1210.64,567.00 1208.87,564.07 1210.16,560.90 1211.82,559.59"/>
    </edge>
    <edge id=":cluster_14485274_151021003_2335517648_254337785_#1more_24" function="internal">
        <lane id=":cluster_14485274_151021003_2335517648_254337785_#1more_24_0" index="0" disallow="pedestrian tram rail_urban rail rail_electric rail_fast ship" speed="12.12" length="15.21" shape="1199.86,560.28 1195.38,554.41 1192.77,547.04"/>
    </edge>
    <edge id=":cluster_14485274_151021003_2335517648_254337785_#1more_25" function="internal">
        <lane id=":cluster_14485274_151021003_2335517648_254337785_#1more_25_0" index="0" disallow="pedestrian tram rail_urban rail rail_electric rail_fast ship" speed="6.21" length="3.39" shape="1211.82,559.59 1214.49,557.50"/>
    </edge>
    <edge id=":cluster_14485274_151021003_2335517648_254337785_#1more_11" function="internal">
        <lane id=":cluster_14485274_151021003_2335517648_254337785_#1more_11_0" index="0" disallow="tram rail_urban rail rail_electric rail_fast ship" speed="6.48" length="9.02" shape="1208.02,545.95 1208.53,548.37 1209.69,550.03 1211.51,550.95 1213.99,551.12"/>
    </edge>
    <edge id=":cluster_14485274_151021003_2335517648_254337785_#1more_12" function="internal">
        <lane id=":cluster_14485274_151021003_2335517648_254337785_#1more_12_0" index="0" disallow="tram rail_urban rail rail_electric rail_fast ship" speed="13.89" length="36.31" shape="1208.02,545.95 1208.86,582.25"/>
        <lane id=":cluster_14485274_151021003_2335517648_254337785_#1more_12_1" index="1" disallow="tram rail_urban rail rail_electric rail_fast ship" speed="13.89" length="36.31" shape="1204.83,546.18 1205.67,582.48"/>
    </edge>
    <edge id=":cluster_14485274_151021003_2335517648_254337785_#1more_14" function="internal">
        <lane id=":cluster_14485274_151021003_2335517648_254337785_#1more_14_0" index="0" disallow="tram rail_urban rail rail_electric rail_fast ship" speed="11.79" length="18.69" shape="1201.64,546.41 1200.48,554.05 1196.80,562.26 1195.59,563.80"/>
    </edge>
    <edge id=":cluster_14485274_151021003_2335517648_254337785_#1more_15" function="internal">
        <lane id=":cluster_14485274_151021003_2335517648_254337785_#1more_15_0" index="0" disallow="tram rail_urban rail rail_electric rail_fast ship" speed="5.41" length="9.59" shape="1201.64,546.41 1199.65,549.89 1197.52,551.15 1195.22,550.20 1194.85,549.72"/>
    </edge>
    <edge id=":cluster_14485274_151021003_2335517648_254337785_#1more_26" function="internal">
        <lane id=":cluster_14485274_151021003_2335517648_254337785_#1more_26_0" index="0" disallow="tram rail_urban rail rail_electric rail_fast ship" speed="11.79" length="13.09" shape="1195.59,563.80 1191.55,568.92 1185.71,571.91"/>
    </edge>
    <edge id=":cluster_14485274_151021003_2335517648_254337785_#1more_27" function="internal">
        <lane id=":cluster_14485274_151021003_2335517648_254337785_#1more_27_0" index="0" disallow="tram rail_urban rail rail_electric rail_fast ship" speed="5.41" length="3.39" shape="1194.85,549.72 1192.77,547.04"/>
    </edge>
    <edge id=":cluster_14485274_151021003_2335517648_254337785_#1more_16" function="internal">
        <lane id=":cluster_14485274_151021003_2335517648_254337785_#1more_16_0" index="0" disallow="tram rail_urban rail rail_electric rail_fast ship" speed="6.60" length="9.31" shape="1184.33,553.51 1186.79,552.96 1188.49,551.73 1189.42,549.83 1189.58,547.26"/>
    </edge>
    <edge id=":cluster_14485274_151021003_2335517648_254337785_#1more_17" function="internal">
        <lane id=":cluster_14485274_151021003_2335517648_254337785_#1more_17_0" index="0" disallow="tram rail_urban rail rail_electric rail_fast ship" speed="16.67" length="29.77" shape="1184.33,553.51 1213.99,551.12"/>
        <lane id=":cluster_14485274_151021003_2335517648_254337785_#1more_17_1" index="1" disallow="tram rail_urban rail rail_electric rail_fast ship" speed="16.67" length="29.77" shape="1184.57,556.70 1214.24,554.31"/>
        <lane id=":cluster_14485274_151021003_2335517648_254337785_#1more_17_2" index="2" disallow="tram rail_urban rail rail_electric rail_fast ship" speed="16.67" length="29.77" shape="1184.81,559.89 1214.49,557.50"/>
    </edge>
    <edge id=":cluster_14485274_151021003_2335517648_254337785_#1more_20" function="internal">
        <lane id=":cluster_14485274_151021003_2335517648_254337785_#1more_20_0" index="0" disallow="tram rail_urban rail rail_electric rail_fast ship" speed="11.89" length="17.70" shape="1184.81,559.89 1191.43,561.91 1198.05,567.63 1199.21,569.29"/>
    </edge>
    <edge id=":cluster_14485274_151021003_2335517648_254337785_#1more_21" function="internal">
        <lane id=":cluster_14485274_151021003_2335517648_254337785_#1more_21_0" index="0" disallow="tram rail_urban rail rail_electric rail_fast ship" speed="6.17" length="14.20" shape="1184.81,559.89 1189.54,562.56 1191.26,565.45 1189.99,568.57 1188.38,569.82"/>
    </edge>
    <edge id=":cluster_14485274_151021003_2335517648_254337785_#1more_28" function="internal">
        <lane id=":cluster_14485274_151021003_2335517648_254337785_#1more_28_0" index="0" disallow="tram rail_urban rail rail_electric rail_fast ship" speed="11.89" length="14.84" shape="1199.21,569.29 1203.27,575.13 1205.67,582.48"/>
    </edge>
    <edge id=":cluster_14485274_151021003_2335517648_254337785_#1more_29" function="internal">
        <lane id=":cluster_14485274_151021003_2335517648_254337785_#1more_29_0" index="0" disallow="tram rail_urban rail rail_electric rail_fast ship" speed="6.17" length="3.39" shape="1188.38,569.82 1185.71,571.91"/>
    </edge>
    <edge id=":cluster_1494522748_1494522757_6418784131_0" function="internal">
        <lane id=":cluster_1494522748_1494522757_6418784131_0_0" index="0" disallow="tram rail_urban rail rail_electric rail_fast ship" speed="6.91" length="10.17" shape="969.73,600.25 969.07,597.80 967.62,596.13 965.39,595.22 962.38,595.09"/>
    </edge>
    <edge id=":cluster_1494522748_1494522757_6418784131_1" function="internal">
        <lane id=":cluster_1494522748_1494522757_6418784131_1_0" index="0" disallow="pedestrian tram rail_urban rail rail_electric rail_fast ship" speed="11.41" length="30.33" shape="969.73,600.25 969.19,588.53 970.11,580.06 972.50,574.83 976.34,572.85"/>
        <lane id=":cluster_1494522748_1494522757_6418784131_1_1" index="1" disallow="tram rail_urban rail rail_electric rail_fast ship" speed="10.85" length="27.34" shape="969.73,600.25 969.32,589.92 970.32,582.45 972.75,577.82 976.59,576.04"/>
    </edge>
    <edge id=":cluster_1494522748_1494522757_6418784131_3" function="internal">
        <lane id=":cluster_1494522748_1494522757_6418784131_3_0" index="0" disallow="tram rail_urban rail rail_electric rail_fast ship" speed="3.65" length="4.67" shape="969.73,600.25 970.41,598.98 971.17,598.51 972.00,598.83 972.91,599.95"/>
    </edge>
    <edge id=":cluster_1494522748_1494522757_6418784131_4" function="internal">
        <lane id=":cluster_1494522748_1494522757_6418784131_4_0" index="0" disallow="tram rail_urban rail rail_electric rail_fast ship" speed="6.46" length="9.03" shape="977.99,593.92 975.57,594.45 973.92,595.64 973.03,597.47 972.91,599.95"/>
    </edge>
    <edge id=":cluster_1494522748_1494522757_6418784131_5" function="internal">
        <lane id=":cluster_1494522748_1494522757_6418784131_5_0" index="0" disallow="tram rail_urban rail rail_electric rail_fast ship" speed="16.67" length="15.65" shape="977.99,593.92 962.38,595.09"/>
        <lane id=":cluster_1494522748_1494522757_6418784131_5_1" index="1" disallow="tram rail_urban rail rail_electric rail_fast ship" speed="16.67" length="15.65" shape="977.74,590.73 962.14,591.90"/>
        <lane id=":cluster_1494522748_1494522757_6418784131_5_2" index="2" disallow="tram rail_urban rail rail_electric rail_fast ship" speed="16.67" length="15.65" shape="977.49,587.54 961.90,588.71"/>
    </edge>
    <edge id=":cluster_1494522748_1494522757_6418784131_8" function="internal">
        <lane id=":cluster_1494522748_1494522757_6418784131_8_0" index="0" disallow="pedestrian tram rail_urban rail rail_electric rail_fast ship" speed="6.05" length="13.45" shape="977.49,587.54 972.96,585.00 971.29,582.24 972.51,579.26 973.93,578.14"/>
    </edge>
    <edge id=":cluster_1494522748_1494522757_6418784131_13" function="internal">
        <lane id=":cluster_1494522748_1494522757_6418784131_13_0" index="0" disallow="pedestrian tram rail_urban rail rail_electric rail_fast ship" speed="6.05" length="3.39" shape="973.93,578.14 976.59,576.04"/>
    </edge>
    <edge id=":cluster_1494522748_1494522757_6418784131_9" function="internal">
        <lane id=":cluster_1494522748_1494522757_6418784131_9_0" index="0" disallow="tram rail_urban rail rail_electric rail_fast ship" speed="16.67" length="15.50" shape="960.64,570.87 976.09,569.66"/>
        <lane id=":cluster_1494522748_1494522757_6418784131_9_1" index="1" disallow="tram rail_urban rail rail_electric rail_fast ship" speed="16.67" length="15.50" shape="960.89,574.06 976.34,572.85"/>
        <lane id=":cluster_1494522748_1494522757_6418784131_9_2" index="2" disallow="tram rail_urban rail rail_electric rail_fast ship" speed="16.67" length="15.50" shape="961.14,577.25 976.59,576.04"/>
    </edge>
    <edge id=":cluster_1494522748_1494522757_6418784131_12" function="internal">
        <lane id=":cluster_1494522748_1494522757_6418784131_12_0" index="0" disallow="pedestrian tram rail_urban rail rail_electric rail_fast ship" speed="6.04" length="13.37" shape="961.14,577.25 965.63,579.83 967.25,582.60 966.01,585.56 964.60,586.64"/>
    </edge>
    <edge id=":cluster_1494522748_1494522757_6418784131_14" function="internal">
        <lane id=":cluster_1494522748_1494522757_6418784131_14_0" index="0" disallow="pedestrian tram rail_urban rail rail_electric rail_fast ship" speed="6.04" length="3.40" shape="964.60,586.64 961.90,588.71"/>
    </edge>
    <edge id=":cluster_254337786_31404743_0" function="internal">
        <lane id=":cluster_254337786_31404743_0_0" index="0" disallow="tram rail_urban rail rail_electric rail_fast ship" speed="6.94" length="10.38" shape="630.21,627.27 629.62,624.15 628.40,621.97 626.55,620.75 624.08,620.48"/>
    </edge>
    <edge id=":cluster_254337786_31404743_1" function="internal">
        <lane id=":cluster_254337786_31404743_1_0" index="0" disallow="tram rail_urban rail rail_electric rail_fast ship" speed="13.89" length="36.31" shape="630.21,627.27 627.63,591.05"/>
        <lane id=":cluster_254337786_31404743_1_1" index="1" disallow="tram rail_urban rail rail_electric rail_fast ship" speed="13.89" length="36.31" shape="633.40,627.03 630.82,590.81"/>
    </edge>
    <edge id=":cluster_254337786_31404743_3" function="internal">
        <lane id=":cluster_254337786_31404743_3_0" index="0" disallow="tram rail_urban rail rail_electric rail_fast ship" speed="11.43" length="10.65" shape="633.40,627.03 633.35,616.38"/>
    </edge>
    <edge id=":cluster_254337786_31404743_4" function="internal">
        <lane id=":cluster_254337786_31404743_4_0" index="0" disallow="tram rail_urban rail rail_electric rail_fast ship" speed="3.65" length="1.44" shape="633.40,627.03 634.11,625.77"/>
    </edge>
    <edge id=":cluster_254337786_31404743_22" function="internal">
        <lane id=":cluster_254337786_31404743_22_0" index="0" disallow="tram rail_urban rail rail_electric rail_fast ship" speed="11.43" length="19.41" shape="633.35,616.38 635.05,608.64 638.49,603.81 643.70,601.88"/>
    </edge>
    <edge id=":cluster_254337786_31404743_23" function="internal">
        <lane id=":cluster_254337786_31404743_23_0" index="0" disallow="tram rail_urban rail rail_electric rail_fast ship" speed="3.65" length="3.23" shape="634.11,625.77 634.88,625.31 635.71,625.65 636.60,626.78"/>
    </edge>
    <edge id=":cluster_254337786_31404743_5" function="internal">
        <lane id=":cluster_254337786_31404743_5_0" index="0" disallow="pedestrian tram rail_urban rail rail_electric rail_fast ship" speed="6.55" length="9.19" shape="645.14,620.52 642.64,621.05 640.91,622.24 639.96,624.06 639.79,626.54"/>
    </edge>
    <edge id=":cluster_254337786_31404743_6" function="internal">
        <lane id=":cluster_254337786_31404743_6_0" index="0" disallow="pedestrian tram rail_urban rail rail_electric rail_fast ship" speed="15.28" length="21.05" shape="645.14,620.52 624.08,620.48"/>
        <lane id=":cluster_254337786_31404743_6_1" index="1" disallow="pedestrian tram rail_urban rail rail_electric rail_fast ship" speed="15.28" length="21.05" shape="644.89,617.33 623.84,617.29"/>
        <lane id=":cluster_254337786_31404743_6_2" index="2" disallow="pedestrian tram rail_urban rail rail_electric rail_fast ship" speed="15.28" length="21.05" shape="644.65,614.14 623.60,614.10"/>
    </edge>
    <edge id=":cluster_254337786_31404743_9" function="internal">
        <lane id=":cluster_254337786_31404743_9_0" index="0" disallow="pedestrian tram rail_urban rail rail_electric rail_fast ship" speed="10.87" length="12.02" shape="644.40,610.95 639.04,610.02 634.99,606.36 634.55,605.34"/>
    </edge>
    <edge id=":cluster_254337786_31404743_10" function="internal">
        <lane id=":cluster_254337786_31404743_10_0" index="0" disallow="pedestrian tram rail_urban rail rail_electric rail_fast ship" speed="5.46" length="9.89" shape="644.40,610.95 640.83,608.94 639.52,606.77 640.47,604.41 641.03,603.98"/>
    </edge>
    <edge id=":cluster_254337786_31404743_24" function="internal">
        <lane id=":cluster_254337786_31404743_24_0" index="0" disallow="pedestrian tram rail_urban rail rail_electric rail_fast ship" speed="10.87" length="15.10" shape="634.55,605.34 632.25,599.96 630.82,590.81"/>
    </edge>
    <edge id=":cluster_254337786_31404743_25" function="internal">
        <lane id=":cluster_254337786_31404743_25_0" index="0" disallow="pedestrian tram rail_urban rail rail_electric rail_fast ship" speed="5.46" length="3.39" shape="641.03,603.98 643.70,601.88"/>
    </edge>
    <edge id=":cluster_254337786_31404743_11" function="internal">
        <lane id=":cluster_254337786_31404743_11_0" index="0" disallow="tram rail_urban rail rail_electric rail_fast ship" speed="6.50" length="9.03" shape="637.20,590.35 637.73,592.76 638.91,594.43 640.73,595.34 643.20,595.50"/>
    </edge>
    <edge id=":cluster_254337786_31404743_12" function="internal">
        <lane id=":cluster_254337786_31404743_12_0" index="0" disallow="tram rail_urban rail rail_electric rail_fast ship" speed="13.89" length="36.29" shape="637.20,590.35 639.79,626.54"/>
        <lane id=":cluster_254337786_31404743_12_1" index="1" disallow="tram rail_urban rail rail_electric rail_fast ship" speed="13.89" length="36.29" shape="634.01,590.58 636.60,626.78"/>
    </edge>
    <edge id=":cluster_254337786_31404743_14" function="internal">
        <lane id=":cluster_254337786_31404743_14_0" index="0" disallow="tram rail_urban rail rail_electric rail_fast ship" speed="11.16" length="9.50" shape="634.01,590.58 633.98,600.08"/>
    </edge>
    <edge id=":cluster_254337786_31404743_15" function="internal">
        <lane id=":cluster_254337786_31404743_15_0" index="0" disallow="tram rail_urban rail rail_electric rail_fast ship" speed="3.65" length="1.44" shape="634.01,590.58 633.30,591.84"/>
    </edge>
    <edge id=":cluster_254337786_31404743_26" function="internal">
        <lane id=":cluster_254337786_31404743_26_0" index="0" disallow="tram rail_urban rail rail_electric rail_fast ship" speed="11.16" length="19.08" shape="633.98,600.08 633.98,600.53 632.24,607.77 628.78,612.29 623.60,614.10"/>
    </edge>
    <edge id=":cluster_254337786_31404743_27" function="internal">
        <lane id=":cluster_254337786_31404743_27_0" index="0" disallow="tram rail_urban rail rail_electric rail_fast ship" speed="3.65" length="3.23" shape="633.30,591.84 632.53,592.29 631.70,591.95 630.82,590.81"/>
    </edge>
    <edge id=":cluster_254337786_31404743_16" function="internal">
        <lane id=":cluster_254337786_31404743_16_0" index="0" disallow="tram rail_urban rail rail_electric rail_fast ship" speed="6.54" length="9.14" shape="622.34,597.07 624.80,596.54 626.51,595.36 627.45,593.53 627.63,591.05"/>
    </edge>
    <edge id=":cluster_254337786_31404743_17" function="internal">
        <lane id=":cluster_254337786_31404743_17_0" index="0" disallow="tram rail_urban rail rail_electric rail_fast ship" speed="16.67" length="20.93" shape="622.34,597.07 643.20,595.50"/>
        <lane id=":cluster_254337786_31404743_17_1" index="1" disallow="tram rail_urban rail rail_electric rail_fast ship" speed="16.67" length="20.93" shape="622.57,600.26 643.45,598.69"/>
        <lane id=":cluster_254337786_31404743_17_2" index="2" disallow="tram rail_urban rail rail_electric rail_fast ship" speed="16.67" length="20.93" shape="622.81,603.45 643.70,601.88"/>
    </edge>
    <edge id=":cluster_254337786_31404743_20" function="internal">
        <lane id=":cluster_254337786_31404743_20_0" index="0" disallow="tram rail_urban rail rail_electric rail_fast ship" speed="11.43" length="14.01" shape="622.81,603.45 628.14,604.58 632.22,608.85 633.16,611.34"/>
    </edge>
    <edge id=":cluster_254337786_31404743_21" function="internal">
        <lane id=":cluster_254337786_31404743_21_0" index="0" disallow="tram rail_urban rail rail_electric rail_fast ship" speed="5.85" length="12.30" shape="622.81,603.45 627.00,605.81 628.53,608.38 627.40,611.14 626.21,612.07"/>
    </edge>
    <edge id=":cluster_254337786_31404743_28" function="internal">
        <lane id=":cluster_254337786_31404743_28_0" index="0" disallow="tram rail_urban rail rail_electric rail_fast ship" speed="11.43" length="15.90" shape="633.16,611.34 635.03,616.25 636.60,626.78"/>
    </edge>
    <edge id=":cluster_254337786_31404743_29" function="internal">
        <lane id=":cluster_254337786_31404743_29_0" index="0" disallow="tram rail_urban rail rail_electric rail_fast ship" speed="5.85" length="3.30" shape="626.21,612.07 623.60,614.10"/>
    </edge>
    <edge id=":cluster_537912_578689_0" function="internal">
        <lane id=":cluster_537912_578689_0_0" index="0" disallow="pedestrian tram rail_urban rail rail_electric rail_fast ship" speed="7.79" length="13.31" shape="1521.32,560.63 1520.49,557.45 1518.61,555.28 1515.68,554.11 1511.69,553.94"/>
    </edge>
    <edge id=":cluster_537912_578689_1" function="internal">
        <lane id=":cluster_537912_578689_1_0" index="0" disallow="tram rail_urban rail rail_electric rail_fast ship" speed="13.89" length="37.07" shape="1521.32,560.63 1520.29,554.22 1518.35,544.21 1516.32,533.27 1515.00,524.06"/>
        <lane id=":cluster_537912_578689_1_1" index="1" disallow="tram rail_urban rail rail_electric rail_fast ship" speed="13.89" length="37.07" shape="1521.32,560.63 1518.19,523.76"/>
    </edge>
    <edge id=":cluster_537912_578689_3" function="internal">
        <lane id=":cluster_537912_578689_3_0" index="0" disallow="pedestrian tram rail_urban rail rail_electric rail_fast ship" speed="11.48" length="9.64" shape="1521.32,560.63 1521.21,550.99"/>
    </edge>
    <edge id=":cluster_537912_578689_4" function="internal">
        <lane id=":cluster_537912_578689_4_0" index="0" disallow="tram rail_urban rail rail_electric rail_fast ship" speed="3.65" length="1.44" shape="1521.32,560.63 1522.02,559.37"/>
    </edge>
    <edge id=":cluster_537912_578689_22" function="internal">
        <lane id=":cluster_537912_578689_22_0" index="0" disallow="pedestrian tram rail_urban rail rail_electric rail_fast ship" speed="11.48" length="20.88" shape="1521.21,550.99 1521.19,549.73 1522.84,541.82 1526.26,536.90 1531.46,534.96"/>
    </edge>