<?xml version="1.0" encoding="UTF-8"?>

<!-- generated on 2024-09-02 15:36:11.224702 by randomTrips.py v1_20_0+0002-343658e7c64
<configuration>
    <net-file value="C:\self\School\Master\Disertation\code\RESCO\resco_benchmark\environments\unirii\osm.net.xml.gz"/>
    <fringe-factor value="max"/>
    <validate value="True"/>
    <insertion-rate value="1700.0"/>
</configuration>
-->

<!-- generated on 2024-09-02 15:36:11 by Eclipse SUMO duarouter Version 1.20.0
<configuration xmlns:xsi="http://www.w3.org/2001/XMLSchema-instance" xsi:noNamespaceSchemaLocation="http://sumo.dlr.de/xsd/duarouterConfiguration.xsd">

    <input>
        <net-file value="C:\self\School\Master\Disertation\code\RESCO\resco_benchmark\environments\unirii\osm.net.xml.gz"/>
        <route-files value="trips.trips.xml"/>
    </input>

    <output>
        <output-file value="routes.rou.xml"/>
        <alternatives-output value="NUL"/>
    </output>

    <time>
        <begin value="0"/>
        <end value="3600"/>
    </time>

    <report>
        <no-warnings value="true"/>
        <ignore-errors value="true"/>
        <no-step-log value="true"/>
    </report>

</configuration>
-->

<routes xmlns:xsi="http://www.w3.org/2001/XMLSchema-instance" xsi:noNamespaceSchemaLocation="http://sumo.dlr.de/xsd/routes_file.xsd">
    <vehicle id="0" depart="0.00">
        <route edges="65746828#0 695574549#1 695574549#6 585851684#0 -256961141#1"/>
    </vehicle>
    <vehicle id="1" depart="2.12">
        <route edges="-231177697#2 E4 E5 210831345#1"/>
    </vehicle>
    <vehicle id="2" depart="4.24">
        <route edges="666135205#0 671891058#0 E6 E7 231177697#0"/>
    </vehicle>
    <vehicle id="3" depart="6.35">
        <route edges="E8 E9 -256961141#1"/>
    </vehicle>
    <vehicle id="4" depart="8.47">
        <route edges="-661251539 695574549#6 585851684#0 -256961141#1"/>
    </vehicle>
    <vehicle id="5" depart="10.59">
        <route edges="-226276377#1 231121052#0 E1 E2 E6 E7 218680176#0"/>
    </vehicle>
    <vehicle id="6" depart="12.71">
        <route edges="-218680176#1 153964138#0"/>
    </vehicle>
    <vehicle id="7" depart="14.82">
        <route edges="65746828#0 E6 E7 218680176#0"/>
    </vehicle>
    <vehicle id="9" depart="19.06">
        <route edges="978867529 671891064#0 E4 E5 695574549#1 695574549#6 585851684#0 -256961141#1"/>
    </vehicle>
    <vehicle id="10" depart="21.18">
        <route edges="978867529 671891064#0 231177697#0"/>
    </vehicle>
    <vehicle id="11" depart="23.29">
        <route edges="-661251539 E1 E2 E6 E7 153964138#0"/>
    </vehicle>
    <vehicle id="12" depart="25.41">
        <route edges="E8 E9 231121052#0 E1 E2 210831347#0"/>
    </vehicle>
    <vehicle id="13" depart="27.53">
        <route edges="-218680176#1 E4 E5 695574549#1 695574549#6 585851684#0 -256961141#1"/>
    </vehicle>
    <vehicle id="14" depart="29.65">
        <route edges="978867529 671891064#0 E4 E5 695574549#1 695574549#6 585851684#0 226276377#0"/>
    </vehicle>
    <vehicle id="15" depart="31.76">
        <route edges="978867529 671891064#0 231177697#0"/>
    </vehicle>
    <vehicle id="16" depart="33.88">
        <route edges="256961141#0 450554042#0"/>
    </vehicle>
    <vehicle id="17" depart="36.00">
        <route edges="-661251539 E1 E2 E6 E7 218680176#0"/>
    </vehicle>
    <vehicle id="18" depart="38.12">
        <route edges="978867529 671891064#0 E4 E5 695574549#1 695574549#6 585851684#0 226276377#0"/>
    </vehicle>
    <vehicle id="19" depart="40.24">
        <route edges="978867529 671891064#0 E4 E5 695574549#1 695574549#6 585851684#0 226276377#0"/>
    </vehicle>
    <vehicle id="20" depart="42.35">
        <route edges="666135205#0 671891058#0 695574549#1 695574549#6 585851684#0 -256961141#1"/>
    </vehicle>
    <vehicle id="21" depart="44.47">
        <route edges="-231177697#2 E4 E5 210831345#1"/>
    </vehicle>
    <vehicle id="22" depart="46.59">
        <route edges="-218680176#1 E4 E5 210831345#1"/>
    </vehicle>
    <vehicle id="23" depart="48.71">
        <route edges="-218680176#1 E4 E5 210831345#1"/>
    </vehicle>
    <vehicle id="25" depart="52.94">
        <route edges="-661251539 E1 E2 E6 E7 153964138#0"/>
    </vehicle>
    <vehicle id="26" depart="55.06">
        <route edges="-231177697#2 E4 E5 695574549#1 695574549#6 585851684#0 450554042#0"/>
    </vehicle>
    <vehicle id="27" depart="57.18">
        <route edges="65746828#0 695574549#1 695574549#6 585851684#0 226276377#0"/>
    </vehicle>
    <vehicle id="28" depart="59.29">
        <route edges="-226276377#1 231121052#0 E1 E2 E6 E7 231177697#0"/>
    </vehicle>
    <vehicle id="29" depart="61.41">
        <route edges="-226276377#1 231121052#0 E1 E2 210831347#0"/>
    </vehicle>
    <vehicle id="30" depart="63.53">
        <route edges="E8 E9 226276377#0"/>
    </vehicle>
    <vehicle id="31" depart="65.65">
        <route edges="65746828#0 E6 E7 231177697#0"/>
    </vehicle>
    <vehicle id="32" depart="67.76">
        <route edges="978867529 671891064#0 231177697#0"/>
    </vehicle>
    <vehicle id="33" depart="69.88">
        <route edges="-231177697#2 E4 E5 695574549#1 695574549#6 585851684#0 -256961141#1"/>
    </vehicle>
    <vehicle id="34" depart="72.00">
        <route edges="-231177697#2 E4 E5 210831345#1"/>
    </vehicle>
    <vehicle id="35" depart="74.12">
        <route edges="-226276377#1 450554042#0"/>
    </vehicle>
    <vehicle id="36" depart="76.24">
        <route edges="978867529 671891064#0 E4 E5 210831345#1"/>
    </vehicle>
    <vehicle id="38" depart="80.47">
        <route edges="E8 E9 231121052#0 E1 E2 E6 E7 218680176#0"/>
    </vehicle>
    <vehicle id="39" depart="82.59">
        <route edges="-231177697#2 E4 E5 210831345#1"/>
    </vehicle>
    <vehicle id="40" depart="84.71">
        <route edges="65746828#0 210831345#1"/>
    </vehicle>
    <vehicle id="41" depart="86.82">
        <route edges="65746828#0 695574549#1 695574549#6 585851684#0 450554042#0"/>
    </vehicle>
    <vehicle id="42" depart="88.94">
        <route edges="-661251539 E1 E2 E6 E7 153964138#0"/>
    </vehicle>
    <vehicle id="43" depart="91.06">
        <route edges="E8 E9 231121052#0 E1 E2 E6 E7 218680176#0"/>
    </vehicle>
    <vehicle id="44" depart="93.18">
        <route edges="-218680176#1 E4 E5 695574549#1 695574549#6 585851684#0 -256961141#1"/>
    </vehicle>
    <vehicle id="45" depart="95.29">
        <route edges="-218680176#1 E4 E5 695574549#1 695574549#6 585851684#0 226276377#0"/>
    </vehicle>
    <vehicle id="46" depart="97.41">
        <route edges="978867529 671891064#0 E4 E5 210831347#0"/>
    </vehicle>
    <vehicle id="47" depart="99.53">
        <route edges="-218680176#1 E4 E5 210831347#0"/>
    </vehicle>
    <vehicle id="48" depart="101.65">
        <route edges="E8 E9 231121052#0 E1 E2 E6 E7 218680176#0"/>
    </vehicle>
    <vehicle id="49" depart="103.76">
        <route edges="E8 E9 231121052#0 39907424"/>
    </vehicle>
    <vehicle id="50" depart="105.88">
        <route edges="-218680176#1 231177697#0"/>
    </vehicle>
    <vehicle id="51" depart="108.00">
        <route edges="666135205#0 671891058#0 E6 E7 218680176#0"/>
    </vehicle>
    <vehicle id="52" depart="110.12">
        <route edges="-231177697#2 E4 E5 695574549#1 695574549#6 585851684#0 226276377#0"/>
    </vehicle>
    <vehicle id="53" depart="112.24">
        <route edges="-226276377#1 231121052#0 E1 E2 210831347#0"/>
    </vehicle>
    <vehicle id="54" depart="114.35">
        <route edges="256961141#0 450554042#0"/>
    </vehicle>
    <vehicle id="55" depart="116.47">
        <route edges="978867529 671891064#0 E4 E5 210831345#1"/>
    </vehicle>
    <vehicle id="56" depart="118.59">
        <route edges="256961141#0 231121052#0 E1 E2 E6 E7 153964138#0"/>
    </vehicle>
    <vehicle id="57" depart="120.71">
        <route edges="E8 E9 231121052#0 39907424"/>
    </vehicle>
    <vehicle id="58" depart="122.82">
        <route edges="-231177697#2 E4 E5 695574549#1 695574549#6 585851684#0 226276377#0"/>
    </vehicle>
    <vehicle id="59" depart="124.94">
        <route edges="65746828#0 E6 E7 153964138#0"/>
    </vehicle>
    <vehicle id="60" depart="127.06">
        <route edges="666135205#0 671891058#0 E6 E7 218680176#0"/>
    </vehicle>
    <vehicle id="61" depart="129.18">
        <route edges="978867529 671891064#0 218680176#0"/>
    </vehicle>
    <vehicle id="62" depart="131.29">
        <route edges="-218680176#1 E4 E5 210831345#1"/>
    </vehicle>
    <vehicle id="63" depart="133.41">
        <route edges="-218680176#1 E4 E5 695574549#1 695574549#6 585851684#0 450554042#0"/>
    </vehicle>
    <vehicle id="64" depart="135.53">
        <route edges="978867529 671891064#0 E4 E5 695574549#1 39907424"/>
    </vehicle>
    <vehicle id="65" depart="137.65">
        <route edges="-231177697#2 E4 E5 695574549#1 695574549#6 585851684#0 -256961141#1"/>
    </vehicle>
    <vehicle id="66" depart="139.76">
        <route edges="978867529 671891064#0 E4 E5 695574549#1 695574549#6 585851684#0 450554042#0"/>
    </vehicle>
    <vehicle id="68" depart="144.00">
        <route edges="-218680176#1 231177697#0"/>
    </vehicle>
    <vehicle id="69" depart="146.12">
        <route edges="666135205#0 671891058#0 E6 E7 153964138#0"/>
    </vehicle>
    <vehicle id="70" depart="148.24">
        <route edges="256961141#0 231121052#0 E1 E2 E6 E7 218680176#0"/>
    </vehicle>
    <vehicle id="71" depart="150.35">
        <route edges="-231177697#2 E4 E5 695574549#1 39907424"/>
    </vehicle>
    <vehicle id="72" depart="152.47">
        <route edges="-661251539 E1 E2 E6 E7 153964138#0"/>
    </vehicle>
    <vehicle id="73" depart="154.59">
        <route edges="256961141#0 231121052#0 E1 E2 E6 E7 231177697#0"/>
    </vehicle>
    <vehicle id="74" depart="156.71">
        <route edges="-226276377#1 231121052#0 E1 E2 210831345#1"/>
    </vehicle>
    <vehicle id="75" depart="158.82">
        <route edges="E8 E9 226276377#0"/>
    </vehicle>
    <vehicle id="76" depart="160.94">
        <route edges="-661251539 E1 E2 E6 E7 218680176#0"/>
    </vehicle>
    <vehicle id="77" depart="163.06">
        <route edges="-226276377#1 231121052#0 E1 E2 210831345#1"/>
    </vehicle>
    <vehicle id="78" depart="165.18">
        <route edges="-661251539 695574549#6 585851684#0 226276377#0"/>
    </vehicle>
    <vehicle id="79" depart="167.29">
        <route edges="-231177697#2 153964138#0"/>
    </vehicle>
    <vehicle id="80" depart="169.41">
        <route edges="-218680176#1 E4 E5 695574549#1 695574549#6 585851684#0 226276377#0"/>
    </vehicle>
    <vehicle id="81" depart="171.53">
        <route edges="-231177697#2 E4 E5 695574549#1 695574549#6 585851684#0 450554042#0"/>
    </vehicle>
    <vehicle id="82" depart="173.65">
        <route edges="978867529 671891064#0 E4 E5 695574549#1 695574549#6 585851684#0 -256961141#1"/>
    </vehicle>
    <vehicle id="84" depart="177.88">
        <route edges="-226276377#1 231121052#0 E1 E2 E6 E7 153964138#0"/>
    </vehicle>
    <vehicle id="85" depart="180.00">
        <route edges="E8 E9 226276377#0"/>
    </vehicle>
    <vehicle id="86" depart="182.12">
        <route edges="256961141#0 231121052#0 39907424"/>
    </vehicle>
    <vehicle id="88" depart="186.35">
        <route edges="-218680176#1 E4 E5 210831347#0"/>
    </vehicle>
    <vehicle id="89" depart="188.47">
        <route edges="-661251539 E1 E2 E6 E7 218680176#0"/>
    </vehicle>
    <vehicle id="90" depart="190.59">
        <route edges="666135205#0 671891058#0 E6 E7 231177697#0"/>
    </vehicle>
    <vehicle id="91" depart="192.71">
        <route edges="E8 E9 -256961141#1"/>
    </vehicle>
    <vehicle id="92" depart="194.82">
        <route edges="-661251539 E1 E2 210831347#0"/>
    </vehicle>
    <vehicle id="93" depart="196.94">
        <route edges="978867529 671891064#0 E4 E5 210831345#1"/>
    </vehicle>
    <vehicle id="94" depart="199.06">
        <route edges="-226276377#1 231121052#0 E1 E2 E6 E7 218680176#0"/>
    </vehicle>
    <vehicle id="95" depart="201.18">
        <route edges="-661251539 E1 E2 210831345#1"/>
    </vehicle>
    <vehicle id="96" depart="203.29">
        <route edges="-231177697#2 E4 E5 695574549#1 695574549#6 585851684#0 450554042#0"/>
    </vehicle>
    <vehicle id="99" depart="209.65">
        <route edges="E8 E9 231121052#0 39907424"/>
    </vehicle>
    <vehicle id="102" depart="216.00">
        <route edges="256961141#0 231121052#0 E1 E2 E6 E7 153964138#0"/>
    </vehicle>
    <vehicle id="103" depart="218.12">
        <route edges="-661251539 695574549#6 585851684#0 -256961141#1"/>
    </vehicle>
    <vehicle id="104" depart="220.24">
        <route edges="-661251539 695574549#6 585851684#0 450554042#0"/>
    </vehicle>
    <vehicle id="105" depart="222.35">
        <route edges="-231177697#2 E4 E5 695574549#1 39907424"/>
    </vehicle>
    <vehicle id="106" depart="224.47">
        <route edges="256961141#0 231121052#0 E1 E2 210831347#0"/>
    </vehicle>
    <vehicle id="108" depart="228.71">
        <route edges="65746828#0 E6 E7 231177697#0"/>
    </vehicle>
    <vehicle id="109" depart="230.82">
        <route edges="-226276377#1 231121052#0 E1 E2 210831345#1"/>
    </vehicle>
    <vehicle id="110" depart="232.94">
        <route edges="E8 E9 226276377#0"/>
    </vehicle>
    <vehicle id="111" depart="235.06">
        <route edges="256961141#0 231121052#0 E1 E2 E6 E7 231177697#0"/>
    </vehicle>
    <vehicle id="112" depart="237.18">
        <route edges="-218680176#1 E4 E5 695574549#1 695574549#6 585851684#0 226276377#0"/>
    </vehicle>
    <vehicle id="113" depart="239.29">
        <route edges="256961141#0 231121052#0 39907424"/>
    </vehicle>
    <vehicle id="114" depart="241.41">
        <route edges="-226276377#1 450554042#0"/>
    </vehicle>
    <vehicle id="115" depart="243.53">
        <route edges="-218680176#1 153964138#0"/>
    </vehicle>
    <vehicle id="116" depart="245.65">
        <route edges="65746828#0 E6 E7 231177697#0"/>
    </vehicle>
    <vehicle id="117" depart="247.76">
        <route edges="-231177697#2 153964138#0"/>
    </vehicle>
    <vehicle id="118" depart="249.88">
        <route edges="E8 E9 231121052#0 E1 E2 210831345#1"/>
    </vehicle>
    <vehicle id="119" depart="252.00">
        <route edges="65746828#0 695574549#1 695574549#6 585851684#0 226276377#0"/>
    </vehicle>
    <vehicle id="120" depart="254.12">
        <route edges="-661251539 695574549#6 585851684#0 226276377#0"/>
    </vehicle>
    <vehicle id="121" depart="256.24">
        <route edges="256961141#0 450554042#0"/>
    </vehicle>
    <vehicle id="122" depart="258.35">
        <route edges="-226276377#1 231121052#0 E1 E2 E6 E7 231177697#0"/>
    </vehicle>
    <vehicle id="123" depart="260.47">
        <route edges="-231177697#2 E4 E5 210831347#0"/>
    </vehicle>
    <vehicle id="128" depart="271.06">
        <route edges="-218680176#1 153964138#0"/>
    </vehicle>
    <vehicle id="129" depart="273.18">
        <route edges="-231177697#2 E4 E5 695574549#1 695574549#6 585851684#0 450554042#0"/>
    </vehicle>
    <vehicle id="130" depart="275.29">
        <route edges="978867529 671891064#0 E4 E5 695574549#1 39907424"/>
    </vehicle>
    <vehicle id="131" depart="277.41">
        <route edges="-661251539 E1 E2 E6 E7 153964138#0"/>
    </vehicle>
    <vehicle id="132" depart="279.53">
        <route edges="978867529 671891064#0 231177697#0"/>
    </vehicle>
    <vehicle id="133" depart="281.65">
        <route edges="65746828#0 695574549#1 695574549#6 585851684#0 450554042#0"/>
    </vehicle>
    <vehicle id="134" depart="283.76">
        <route edges="65746828#0 695574549#1 695574549#6 585851684#0 -256961141#1"/>
    </vehicle>
    <vehicle id="135" depart="285.88">
        <route edges="978867529 671891064#0 E4 E5 210831345#1"/>
    </vehicle>
    <vehicle id="136" depart="288.00">
        <route edges="65746828#0 695574549#1 695574549#6 585851684#0 450554042#0"/>
    </vehicle>
    <vehicle id="137" depart="290.12">
        <route edges="-226276377#1 231121052#0 E1 E2 E6 E7 153964138#0"/>
    </vehicle>
    <vehicle id="139" depart="294.35">
        <route edges="-231177697#2 E4 E5 695574549#1 695574549#6 585851684#0 226276377#0"/>
    </vehicle>
    <vehicle id="140" depart="296.47">
        <route edges="666135205#0 671891058#0 E6 E7 153964138#0"/>
    </vehicle>
    <vehicle id="141" depart="298.59">
        <route edges="65746828#0 210831345#1"/>
    </vehicle>
    <vehicle id="142" depart="300.71">
        <route edges="256961141#0 450554042#0"/>
    </vehicle>
    <vehicle id="143" depart="302.82">
        <route edges="978867529 671891064#0 E4 E5 695574549#1 695574549#6 585851684#0 -256961141#1"/>
    </vehicle>
    <vehicle id="144" depart="304.94">
        <route edges="-661251539 E1 E2 210831345#1"/>
    </vehicle>
    <vehicle id="145" depart="307.06">
        <route edges="-218680176#1 231177697#0"/>
    </vehicle>
    <vehicle id="146" depart="309.18">
        <route edges="65746828#0 210831345#1"/>
    </vehicle>
    <vehicle id="147" depart="311.29">
        <route edges="666135205#0 671891058#0 E6 E7 218680176#0"/>
    </vehicle>
    <vehicle id="148" depart="313.41">
        <route edges="-661251539 695574549#6 585851684#0 -256961141#1"/>
    </vehicle>
    <vehicle id="149" depart="315.53">
        <route edges="-218680176#1 E4 E5 695574549#1 39907424"/>
    </vehicle>
    <vehicle id="150" depart="317.65">
        <route edges="E8 E9 231121052#0 E1 E2 E6 E7 218680176#0"/>
    </vehicle>
    <vehicle id="151" depart="319.76">
        <route edges="978867529 671891064#0 E4 E5 695574549#1 695574549#6 585851684#0 226276377#0"/>
    </vehicle>
    <vehicle id="152" depart="321.88">
        <route edges="-226276377#1 231121052#0 E1 E2 E6 E7 153964138#0"/>
    </vehicle>
    <vehicle id="153" depart="324.00">
        <route edges="-231177697#2 E4 E5 695574549#1 695574549#6 585851684#0 450554042#0"/>
    </vehicle>
    <vehicle id="154" depart="326.12">
        <route edges="978867529 671891064#0 E4 E5 695574549#1 39907424"/>
    </vehicle>
    <vehicle id="155" depart="328.24">
        <route edges="E8 E9 231121052#0 E1 E2 E6 E7 153964138#0"/>
    </vehicle>
    <vehicle id="156" depart="330.35">
        <route edges="-231177697#2 E4 E5 695574549#1 695574549#6 585851684#0 -256961141#1"/>
    </vehicle>
    <vehicle id="157" depart="332.47">
        <route edges="978867529 671891064#0 E4 E5 695574549#1 39907424"/>
    </vehicle>
    <vehicle id="158" depart="334.59">
        <route edges="-661251539 695574549#6 585851684#0 226276377#0"/>
    </vehicle>
    <vehicle id="159" depart="336.71">
        <route edges="-226276377#1 450554042#0"/>
    </vehicle>
    <vehicle id="160" depart="338.82">
        <route edges="978867529 671891064#0 E4 E5 695574549#1 695574549#6 585851684#0 450554042#0"/>
    </vehicle>
    <vehicle id="161" depart="340.94">
        <route edges="978867529 671891064#0 E4 E5 695574549#1 39907424"/>
    </vehicle>
    <vehicle id="162" depart="343.06">
        <route edges="-218680176#1 231177697#0"/>
    </vehicle>
    <vehicle id="163" depart="345.18">
        <route edges="-231177697#2 E4 E5 695574549#1 695574549#6 585851684#0 450554042#0"/>
    </vehicle>
    <vehicle id="164" depart="347.29">
        <route edges="978867529 671891064#0 E4 E5 695574549#1 39907424"/>
    </vehicle>
    <vehicle id="165" depart="349.41">
        <route edges="978867529 671891064#0 E4 E5 210831345#1"/>
    </vehicle>
    <vehicle id="166" depart="351.53">
        <route edges="978867529 671891064#0 E4 E5 695574549#1 695574549#6 585851684#0 -256961141#1"/>
    </vehicle>
    <vehicle id="167" depart="353.65">
        <route edges="978867529 671891064#0 E4 E5 695574549#1 39907424"/>
    </vehicle>
    <vehicle id="168" depart="355.76">
        <route edges="-231177697#2 E4 E5 695574549#1 39907424"/>
    </vehicle>
    <vehicle id="169" depart="357.88">
        <route edges="256961141#0 231121052#0 E1 E2 210831345#1"/>
    </vehicle>
    <vehicle id="170" depart="360.00">
        <route edges="978867529 671891064#0 E4 E5 210831345#1"/>
    </vehicle>
    <vehicle id="171" depart="362.12">
        <route edges="-218680176#1 153964138#0"/>
    </vehicle>
    <vehicle id="172" depart="364.24">
        <route edges="-231177697#2 E4 E5 695574549#1 39907424"/>
    </vehicle>
    <vehicle id="173" depart="366.35">
        <route edges="E8 E9 231121052#0 E1 E2 210831345#1"/>
    </vehicle>
    <vehicle id="175" depart="370.59">
        <route edges="E8 E9 231121052#0 E1 E2 E6 E7 218680176#0"/>
    </vehicle>
    <vehicle id="176" depart="372.71">
        <route edges="E8 E9 231121052#0 E1 E2 E6 E7 153964138#0"/>
    </vehicle>
    <vehicle id="177" depart="374.82">
        <route edges="E8 E9 231121052#0 E1 E2 E6 E7 153964138#0"/>
    </vehicle>
    <vehicle id="178" depart="376.94">
        <route edges="E8 E9 231121052#0 E1 E2 210831345#1"/>
    </vehicle>
    <vehicle id="179" depart="379.06">
        <route edges="-218680176#1 E4 E5 210831347#0"/>
    </vehicle>
    <vehicle id="181" depart="383.29">
        <route edges="65746828#0 E6 E7 218680176#0"/>
    </vehicle>
    <vehicle id="182" depart="385.41">
        <route edges="-661251539 695574549#6 585851684#0 226276377#0"/>
    </vehicle>
    <vehicle id="184" depart="389.65">
        <route edges="-218680176#1 E4 E5 695574549#1 695574549#6 585851684#0 450554042#0"/>
    </vehicle>
    <vehicle id="185" depart="391.76">
        <route edges="256961141#0 231121052#0 E1 E2 E6 E7 231177697#0"/>
    </vehicle>
    <vehicle id="186" depart="393.88">
        <route edges="666135205#0 671891058#0 E6 E7 231177697#0"/>
    </vehicle>
    <vehicle id="187" depart="396.00">
        <route edges="-661251539 695574549#6 585851684#0 -256961141#1"/>
    </vehicle>
    <vehicle id="188" depart="398.12">
        <route edges="65746828#0 210831345#1"/>
    </vehicle>
    <vehicle id="189" depart="400.24">
        <route edges="-231177697#2 E4 E5 695574549#1 39907424"/>
    </vehicle>
    <vehicle id="191" depart="404.47">
        <route edges="-231177697#2 E4 E5 210831347#0"/>
    </vehicle>
    <vehicle id="192" depart="406.59">
        <route edges="-661251539 E1 E2 210831345#1"/>
    </vehicle>
    <vehicle id="193" depart="408.71">
        <route edges="-226276377#1 231121052#0 E1 E2 210831347#0"/>
    </vehicle>
    <vehicle id="194" depart="410.82">
        <route edges="E8 E9 231121052#0 E1 E2 E6 E7 231177697#0"/>
    </vehicle>
    <vehicle id="195" depart="412.94">
        <route edges="E8 E9 226276377#0"/>
    </vehicle>
    <vehicle id="196" depart="415.06">
        <route edges="-231177697#2 218680176#0"/>
    </vehicle>
    <vehicle id="197" depart="417.18">
        <route edges="-218680176#1 E4 E5 210831345#1"/>
    </vehicle>
    <vehicle id="198" depart="419.29">
        <route edges="-661251539 695574549#6 585851684#0 226276377#0"/>
    </vehicle>
    <vehicle id="199" depart="421.41">
        <route edges="65746828#0 E6 E7 218680176#0"/>
    </vehicle>
    <vehicle id="200" depart="423.53">
        <route edges="-661251539 E1 E2 E6 E7 153964138#0"/>
    </vehicle>
    <vehicle id="201" depart="425.65">
        <route edges="256961141#0 450554042#0"/>
    </vehicle>
    <vehicle id="205" depart="434.12">
        <route edges="978867529 671891064#0 231177697#0"/>
    </vehicle>
    <vehicle id="207" depart="438.35">
        <route edges="-226276377#1 -256961141#1"/>
    </vehicle>
    <vehicle id="208" depart="440.47">
        <route edges="-231177697#2 218680176#0"/>
    </vehicle>
    <vehicle id="209" depart="442.59">
        <route edges="978867529 671891064#0 E4 E5 695574549#1 695574549#6 585851684#0 -256961141#1"/>
    </vehicle>
    <vehicle id="210" depart="444.71">
        <route edges="-661251539 695574549#6 585851684#0 226276377#0"/>
    </vehicle>
    <vehicle id="211" depart="446.82">
        <route edges="-226276377#1 231121052#0 E1 E2 E6 E7 231177697#0"/>
    </vehicle>
    <vehicle id="212" depart="448.94">
        <route edges="256961141#0 231121052#0 E1 E2 210831345#1"/>
    </vehicle>
    <vehicle id="213" depart="451.06">
        <route edges="65746828#0 695574549#1 695574549#6 585851684#0 -256961141#1"/>
    </vehicle>
    <vehicle id="214" depart="453.18">
        <route edges="666135205#0 671891058#0 E6 E7 231177697#0"/>
    </vehicle>
    <vehicle id="215" depart="455.29">
        <route edges="-218680176#1 E4 E5 210831347#0"/>
    </vehicle>
    <vehicle id="216" depart="457.41">
        <route edges="-226276377#1 450554042#0"/>
    </vehicle>
    <vehicle id="218" depart="461.65">
        <route edges="-231177697#2 E4 E5 695574549#1 39907424"/>
    </vehicle>
    <vehicle id="219" depart="463.76">
        <route edges="256961141#0 231121052#0 39907424"/>
    </vehicle>
    <vehicle id="220" depart="465.88">
        <route edges="666135205#0 671891058#0 695574549#1 695574549#6 585851684#0 450554042#0"/>
    </vehicle>
    <vehicle id="221" depart="468.00">
        <route edges="65746828#0 695574549#1 695574549#6 585851684#0 450554042#0"/>
    </vehicle>
    <vehicle id="222" depart="470.12">
        <route edges="E8 E9 226276377#0"/>
    </vehicle>
    <vehicle id="223" depart="472.24">
        <route edges="666135205#0 671891058#0 E6 E7 218680176#0"/>
    </vehicle>
    <vehicle id="224" depart="474.35">
        <route edges="978867529 671891064#0 218680176#0"/>
    </vehicle>
    <vehicle id="225" depart="476.47">
        <route edges="E8 E9 231121052#0 E1 E2 E6 E7 231177697#0"/>
    </vehicle>
    <vehicle id="226" depart="478.59">
        <route edges="256961141#0 231121052#0 E1 E2 210831345#1"/>
    </vehicle>
    <vehicle id="227" depart="480.71">
        <route edges="-231177697#2 E4 E5 695574549#1 695574549#6 585851684#0 226276377#0"/>
    </vehicle>
    <vehicle id="228" depart="482.82">
        <route edges="666135205#0 671891058#0 E6 E7 218680176#0"/>
    </vehicle>
    <vehicle id="229" depart="484.94">
        <route edges="65746828#0 210831345#1"/>
    </vehicle>
    <vehicle id="230" depart="487.06">
        <route edges="-218680176#1 E4 E5 210831345#1"/>
    </vehicle>
    <vehicle id="231" depart="489.18">
        <route edges="-231177697#2 E4 E5 210831345#1"/>
    </vehicle>
    <vehicle id="232" depart="491.29">
        <route edges="256961141#0 231121052#0 E1 E2 E6 E7 153964138#0"/>
    </vehicle>
    <vehicle id="234" depart="495.53">
        <route edges="666135205#0 671891058#0 695574549#1 695574549#6 585851684#0 -256961141#1"/>
    </vehicle>
    <vehicle id="235" depart="497.65">
        <route edges="-661251539 E1 E2 E6 E7 218680176#0"/>
    </vehicle>
    <vehicle id="236" depart="499.76">
        <route edges="-661251539 E1 E2 E6 E7 153964138#0"/>
    </vehicle>
    <vehicle id="237" depart="501.88">
        <route edges="-661251539 695574549#6 585851684#0 450554042#0"/>
    </vehicle>
    <vehicle id="238" depart="504.00">
        <route edges="65746828#0 E6 E7 231177697#0"/>
    </vehicle>
    <vehicle id="239" depart="506.12">
        <route edges="978867529 671891064#0 231177697#0"/>
    </vehicle>
    <vehicle id="240" depart="508.24">
        <route edges="-661251539 695574549#6 585851684#0 -256961141#1"/>
    </vehicle>
    <vehicle id="241" depart="510.35">
        <route edges="-661251539 E1 E2 E6 E7 231177697#0"/>
    </vehicle>
    <vehicle id="242" depart="512.47">
        <route edges="978867529 671891064#0 E4 E5 695574549#1 695574549#6 585851684#0 450554042#0"/>
    </vehicle>
    <vehicle id="243" depart="514.59">
        <route edges="-661251539 E1 E2 E6 E7 231177697#0"/>
    </vehicle>
    <vehicle id="244" depart="516.71">
        <route edges="256961141#0 226276377#0"/>
    </vehicle>
    <vehicle id="245" depart="518.82">
        <route edges="-226276377#1 231121052#0 E1 E2 E6 E7 153964138#0"/>
    </vehicle>
    <vehicle id="246" depart="520.94">
        <route edges="-661251539 695574549#6 585851684#0 -256961141#1"/>
    </vehicle>
    <vehicle id="247" depart="523.06">
        <route edges="-661251539 E1 E2 E6 E7 231177697#0"/>
    </vehicle>
    <vehicle id="248" depart="525.18">
        <route edges="-661251539 E1 E2 E6 E7 153964138#0"/>
    </vehicle>
    <vehicle id="249" depart="527.29">
        <route edges="256961141#0 231121052#0 E1 E2 E6 E7 153964138#0"/>
    </vehicle>
    <vehicle id="250" depart="529.41">
        <route edges="65746828#0 695574549#1 695574549#6 585851684#0 -256961141#1"/>
    </vehicle>
    <vehicle id="251" depart="531.53">
        <route edges="-661251539 695574549#6 585851684#0 226276377#0"/>
    </vehicle>
    <vehicle id="252" depart="533.65">
        <route edges="-218680176#1 E4 E5 695574549#1 695574549#6 585851684#0 226276377#0"/>
    </vehicle>
    <vehicle id="253" depart="535.76">
        <route edges="-226276377#1 231121052#0 E1 E2 E6 E7 218680176#0"/>
    </vehicle>
    <vehicle id="254" depart="537.88">
        <route edges="-218680176#1 E4 E5 210831347#0"/>
    </vehicle>
    <vehicle id="255" depart="540.00">
        <route edges="-226276377#1 231121052#0 E1 E2 210831345#1"/>
    </vehicle>
    <vehicle id="256" depart="542.12">
        <route edges="666135205#0 671891058#0 210831347#0"/>
    </vehicle>
    <vehicle id="257" depart="544.24">
        <route edges="666135205#0 671891058#0 695574549#1 39907424"/>
    </vehicle>
    <vehicle id="258" depart="546.35">
        <route edges="-231177697#2 E4 E5 695574549#1 695574549#6 585851684#0 -256961141#1"/>
    </vehicle>
    <vehicle id="260" depart="550.59">
        <route edges="E8 E9 231121052#0 E1 E2 210831347#0"/>
    </vehicle>
    <vehicle id="261" depart="552.71">
        <route edges="65746828#0 695574549#1 39907424"/>
    </vehicle>
    <vehicle id="262" depart="554.82">
        <route edges="65746828#0 E6 E7 231177697#0"/>
    </vehicle>
    <vehicle id="263" depart="556.94">
        <route edges="E8 E9 231121052#0 E1 E2 E6 E7 153964138#0"/>
    </vehicle>